* model
.model smic18n33 nmos
+LEVEL    = 49                  
*
* GENERAL PARAMETERS
*
+CALCACM  = 1
+LMIN     = 3.0E-7              LMAX     = 1.0E-5              WMIN     = 1.9E-7              
+WMAX     = 1.0E-4              TNOM     = 25.0                VERSION  = 3.24                
+TOX      = '6.65E-09+DTOX_N33' TOXM     = 6.65E-09            XJ       = 1.6000000E-07       
+NCH      = 4.3441000E+17       LLN      = 1.0625758           LWN      = 1.0101005           
+WLN      = 0.9810000           WWN      = 0.9060000           LINT     = 6.3891300E-08       
+LL       = -2.3305548E-15      LW       = -2.4634918E-15      LWL      = 2.6243002E-24       
+WINT     = 3.5850000E-08       WL       = -1.8902563E-15      WW       = -1.3000000E-14      
+WWL      = -1.3027796E-20      MOBMOD   = 1                   BINUNIT  = 2                   
+XL       = '1E-8+DXL_N33'      XW       = '0.00+DXW_N33'      DWG      = -3.9100000E-09                  
+DWB      = 3.2000000E-09       
* DIODE PARAMETERS
+ACM      = 12                  LDIF     = 6.50E-08            HDIF     = 2.05E-07            
+RSH      = 7.08                RD       = 0                   RS       = 0                   
+RSC      = 1.6                 RDC      = 1.6                 
*
* THRESHOLD VOLTAGE PARAMETERS
*
+VTH0     = '0.695+DVTH_N33'    LVTH0    = 4.0100000E-10       WVTH0    = 1.0200000E-08       
+PVTH0    = '8.0000000E-16+DPVTH0_N33'       K1       = 0.8451000           LK1      = 5.8182560E-10       
+WK1      = -6.2456240E-09      PK1      = 1.9938927E-15       K2       = 4.4575000E-02       
+K3       = -3.8500000          DVT0     = 9.4991400           LDVT0    = 8.0839730E-09       
+DVT1     = 0.6300000           LDVT1    = 5.5000000E-08       DVT2     = -0.1450000          
+DVT0W    = 0.00                DVT1W    = 0.1057000           DVT2W    = 0.00                
+NLX      = 2.0274594E-07       LNLX     = -2.8608589E-14      W0       = 0.00                
+K3B      = 0.5669292           NGATE    = 2.6812141E+21                 
*
* MOBILITY PARAMETERS
*
+VSAT     = 8.5000000E+04       LVSAT    = -1.7300000E-03      PVSAT    = 1.2000000E-10       
+UA       = -8.6001130E-10      UB       = 2.3000001E-18       UC       = 1.3100000E-10       
+PUC      = 5.0000000E-25       RDSW     = 2.4208382E+02       PRWB     = -8.5000000E-02      
+PRWG     = 3.8000000E-02       WR       = 1.0000000           U0       = 3.5000000E-02       
+LU0      = 5.0000000E-10       A0       = 1.0200000           LA0      = -1.2000000E-07      
+KETA     = 0.00                LKETA    = -1.4000000E-08      WKETA    = -1.9999999E-09      
+PKETA    = 1.0000000E-15       A1       = 0.00                A2       = 0.9900000           
+AGS      = 0.1700000           B0       = 1.0000000E-08       B1       = 0.00                
*
* SUBTHRESHOLD CURRENT PARAMETERS
*
+VOFF     = -0.1200000          NFACTOR  = 1.1000000           LNFACTOR = 4.0000000E-08       
+PNFACTOR = -1.4000000E-14      CIT      = 1.0000000E-04       CDSC     = 5.0000000E-04       
+CDSCB    = 0.00                CDSCD    = 0.00                ETA0     = 4.0000000E-02       
+PETA0    = 3.0000001E-16       ETAB     = -0.1000000          DSUB     = 0.6000000           
*
* ROUT PARAMETERS
*
+PCLM     = 0.8000000           LPCLM    = 5.0000000E-08       PPCLM    = 8.0000000E-15       
+PDIBLC1  = 9.0000000E-02       PDIBLC2  = 1.6000000E-03       PPDIBLC2 = -7.0000000E-17      
+PDIBLCB  = 0.00                DROUT    = 0.5987002           PSCBE1   = 3.4000000E+08       
+LPSCBE1  = 13.0000000          PSCBE2   = 3.8000000E-06       PVAG     = 0.00                
+DELTA    = 1.0000000E-02       ALPHA0   = -4.4760000E-08      ALPHA1   = 0.8998877           
+BETA0    = 18.8771250          LBETA0   = -5.7118000E-07
*
* TEMPERATURE EFFECTS PARAMETERS
*
+KT1      = -0.3250000          PKT1     = -2.3708420E-15      KT2      = -3.6844640E-02      
+AT       = 2.2000000E+04       UTE      = -1.4100000          UA1      = 2.0599999E-09       
+WUA1     = -1.2600000E-16      PUA1     = -1.0000000E-24      UB1      = -2.5000000E-18      
+WUB1     = 1.1000000E-25       UC1      = -1.1000000E-10      LUC1     = 1.6999999E-17       
+KT1L     = -5.0000000E-09      PRT      = 40.0000000          
*    
* NOISE PARAMETERS
*
+NOIMOD   = 2                   NOIA     = 1.5500E+20            NOIB     = 7.1866E+04    
+NOIC     = 1.4952E-13          EM       = 3.2163E+07            EF       = 9.9600E-01 
*
* CAPACITANCE PARAMETERS
*
+CJ       = '0.000845+DCJ_N33'     MJ       = 0.321                PB       = 0.708               
+CJSW     = '9.15E-11+DCJSW_N33'   MJSW     = 0.447                PBSW     = 1                   
+CJSWG    = '3.41E-10+DCJSWG_N33'  MJSWG    = 0.447                PBSWG    = 1                   
+TPB      = 0.00166                TPBSW    = 0.00162              TPBSWG   = 0.00162     
+TCJ      = 0.000897               TCJSW    = 0.000695             TCJSWG   = 0.000695
+JS       = 3.65E-07               JSW      = 3.0E-13              NJ       = 1.04                 
+XTI      = 3.9                    NQSMOD   = 0                    ELM      = 5 
+CGDO     = '3.86E-10+DCGDO_N33'   CGSO     = '3.86E-10+DCGSO_N33' TLEVC    = 1 
+CAPMOD   = 3                      XPART    = 1                    CF       = 0.00                  
+ACDE     = 0.45                   MOIN     = 24                   NOFF     = 2.3177            
+DLC      = 6.50E-08

.model smic18p33 pmos
+LEVEL    = 49                  
*
* GENERAL PARAMETERS
*
+CALCACM  = 1
+LMIN     = 2.6E-7              LMAX     = 1.0E-5              WMIN     = 1.9E-7              
+WMAX     = 1.0E-4              TNOM     = 25.0                VERSION  = 3.24                
+TOX      = '6.62E-09+DTOX_P33' TOXM     = 6.62E-09            XJ       = 1.7000001E-07       
+NCH      = 5.4852000E+17       LLN      = 1.0471729           LWN      = 0.9530895           
+WLN      = 1.0257638           WWN      = 0.9617700           LINT     = 3.5000000E-08       
+LL       = 5.5000000E-15       LW       = -4.7160380E-14      LWL      = 7.0054450E-22       
+WINT     = 1.3000000E-08       WL       = -3.1491245E-14      WW       = 2.3000000E-15       
+WWL      = -2.4167156E-22      MOBMOD   = 1                   BINUNIT  = 2                   
+XL       = '-1.70E-08+DXL_P33' XW       = '0.00+DXW_P33'      DWG      = 0.00                   
+DWB      = 8.6000000E-09                                 
* DIODE PARAMETERS
+ACM      = 12                  LDIF     = 6.50E-08            HDIF     = 2.05E-07            
+RSH      = 9.8                 RD       = 0                   RS       = 0                   
+RSC      = 1                   RDC      = 1                   
*
* THRESHOLD VOLTAGE PARAMETERS
*
+VTH0     = '-0.672+DVTH_P33'   WVTH0    = 4.0000000E-09       PVTH0    = '6.0000000E-15+DPVTH0_P33'       
+K1       = 0.9145741           PK1      = -1.7000000E-14      K2       = 4.1276220E-02       
+K3       = 0.1293833           DVT0     = 1.8000000           DVT1     = 0.7100000           
+DVT2     = -7.0000000E-02      DVT0W    = 0.00                DVT1W    = 0.00                
+DVT2W    = 0.00                NLX      = 1.2000000E-08       W0       = 1.0021131E-09       
+K3B      = 0.4000000           NGATE    = 1.1600000E+20               
*
* MOBILITY PARAMETERS
*
+VSAT     = 8.5500000E+04       PVSAT    = -5.8000000E-09      UA       = 3.1500000E-10       
+LUA      = 1.5000001E-17       WUA      = -1.6763224E-16      PUA      = -1.1000000E-23      
+UB       = 1.0444180E-18       LUB      = -7.0000000E-27      UC       = -3.5000000E-11      
+LUC      = 4.0000000E-18       PUC      = 5.0000000E-24       RDSW     = 9.5000000E+02       
+PRWB     = 0.00                PRWG     = 6.3755660E-03       WR       = 1.0000000           
+U0       = 9.2500000E-03       LU0      = -4.1500680E-10      WU0      = -1.7001526E-12      
+PU0      = -3.7999640E-16      A0       = 0.8500000           KETA     = 1.5000000E-02       
+LKETA    = -1.0000000E-08      WKETA    = 1.0000000E-09       PKETA    = -6.0000000E-15      
+A1       = 0.00                A2       = 0.9900000           AGS      = 4.0000000E-02       
+B0       = 4.6000000E-08       B1       = 0.00                
*
* SUBTHRESHOLD CURRENT PARAMETERS
*
+VOFF     = -0.1000000          LVOFF    = 1.8000000E-09       PVOFF    = -2.9999999E-15      
+NFACTOR  = 1.1000000           PNFACTOR = -4.0000000E-14      CIT      = 1.9999999E-04       
+CDSC     = 4.5263850E-05       CDSCB    = 0.00                CDSCD    = 0.00                
+ETA0     = 5.0000000E-03       PETA0    = 7.0000000E-15       ETAB     = -1.5000000E-02      
+PETAB    = -2.0000000E-15      DSUB     = 0.5800000           
*
* ROUT PARAMETERS
*
+PCLM     = 0.6000000           PPCLM    = 1.3000000E-13       PDIBLC1  = 6.0000000E-03       
+PDIBLC2  = 2.5000001E-04       WPDIBLC2 = 8.0000000E-11       PDIBLCB  = 0.00                
+DROUT    = 0.5600000           PSCBE1   = 3.3000000E+08       PPSCBE1  = -7.0000000E-06      
+PSCBE2   = 2.0000000E-07       PVAG     = 0.00                DELTA    = 8.0000000E-03       
+PDELTA   = 4.0000000E-16       ALPHA0   = 1.3410400E-06       ALPHA1   = 5.6136910E-02       
+BETA0    = 27.5998000          
*
* TEMPERATURE EFFECTS PARAMETERS
*
+KT1      = -0.3840900          WKT1     = -9.4333370E-10      PKT1     = 4.9999980E-15       
+KT2      = -4.1563480E-02      AT       = -2.0000000E+03      PAT      = -7.5000000E-09      
+UTE      = -1.3236057          UA1      = 3.0000002E-10       WUA1     = 8.0000000E-18       
+PUA1     = 1.0000000E-23       UB1      = -2.0704662E-18      WUB1     = 1.4000000E-25       
+UC1      = -5.0000000E-11      KT1L     = -6.0000000E-09      PRT      = 1.3000000E+02
*    
* NOISE PARAMETERS
*
+NOIMOD   = 2                   NOIA     = 3.5911E+19            NOIB     = 3.0215E+03    
+NOIC     = 6.7064E-12          EM       = 4.2400E+07            EF       = 1.0829E+00 
*
* CAPACITANCE PARAMETERS
*
+CJ       = '0.00101+DCJ_P33'      MJ       = 0.401                PB       = 0.807                
+CJSW     = '8.96E-11+DCJSW_P33'   MJSW     = 0.45                 PBSW     = 1                 
+CJSWG    = '3.19E-10+DCJSWG_P33'  MJSWG    = 0.45                 PBSWG    = 1   
+TPB      = 0.00157                TPBSW    = 0.00137              TPBSWG   = 0.00137
+TCJ      = 0.000883               TCJSW    = 0.000709             TCJSWG   = 0.000709
+JS       = 1.68E-07               JSW      = 4.0E-13              NJ       = 1.07                 
+XTI      = 3.0                    NQSMOD   = 0                    ELM      = 5 
+CGDO     = '3.23E-10+DCGDO_P33'   CGSO     = '3.23E-10+DCGSO_P33' TLEVC    = 1             
+CAPMOD   = 3                      XPART    = 1                    CF       = 0.00                                   
+ACDE     = 0.55                   MOIN     = 15                   NOFF     = 0.565                
+DLC      = 7.0E-09                DWC      = 6.0E-8 

* parameter
.PARAM
*3.3V IO NMOS 
+DTOX_N33      = 0            DXL_N33       = 0            DXW_N33       = 0 
+DVTH_N33      = 0            DCJ_N33       = 0            DCJSW_N33     = 0
+DCJSWG_N33    = 0            DCGDO_N33     = 0            DCGSO_N33     = 0
+DPVTH0_N33    = 0
 
*3.3V IO PMOS
+DTOX_P33      = 0            DXL_P33       = 0            DXW_P33       = 0 
+DVTH_P33      = 0                    DCJ_P33       = 0            DCJSW_P33     = 0
+DCJSWG_P33    = 0                    DCGDO_P33     = 0            DCGSO_P33     = 0
+DPVTH0_P33    = 0